ipss.plugin.3phase/src/test/resources/opendss-reference/ckt7-controls-off-dss-python-voltage-reference.csv
case,bus,phase,vmag_pu,angle_deg
ckt7-controls-off,sourcebus,1,0.969186287899,-9.09243824533
ckt7-controls-off,sourcebus,2,0.969365569572,-129.082532942
ckt7-controls-off,sourcebus,3,0.969421056229,110.903338353
ckt7-controls-off,ckt7,1,0.967982763592,-39.335484321
ckt7-controls-off,ckt7,2,0.967935653876,-159.32083164
ckt7-controls-off,ckt7,3,0.968167975452,80.675393029
ckt7-controls-off,318405,1,0.967982763592,-39.335484321
ckt7-controls-off,318405,2,0.967935653876,-159.32083164
ckt7-controls-off,318405,3,0.968167975452,80.675393029
ckt7-controls-off,318412,1,0.967982763555,-39.3354843436
ckt7-controls-off,318412,2,0.96793565386,-159.320831661
ckt7-controls-off,318412,3,0.968167975418,80.6753930067
ckt7-controls-off,318414,1,0.967982763592,-39.335484321
ckt7-controls-off,318414,2,0.967935653876,-159.32083164
ckt7-controls-off,318414,3,0.968167975452,80.675393029
ckt7-controls-off,157345,1,0.966770362444,-39.4657303707
ckt7-controls-off,157345,2,0.96737754951,-159.431830228
ckt7-controls-off,157345,3,0.967089942835,80.5741609516
ckt7-controls-off,157346,1,0.966771302179,-39.4656845556
ckt7-controls-off,157346,2,0.967378490105,-159.431784472
ckt7-controls-off,157346,3,0.967090883341,80.5742066933
ckt7-controls-off,165442,1,0.966746778095,-39.4705393273
ckt7-controls-off,165442,2,0.967365729477,-159.43544654
ckt7-controls-off,165442,3,0.96705917374,80.5700431102
ckt7-controls-off,298160,1,0.965654924628,-39.6708266378
ckt7-controls-off,298160,2,0.966735317068,-159.588686546
ckt7-controls-off,298160,3,0.965684584036,80.3970310679
ckt7-controls-off,165448,1,0.964845339714,-39.7473664249
ckt7-controls-off,165448,2,0.966189569242,-159.655513692
ckt7-controls-off,165448,3,0.964910804379,80.3293968975
ckt7-controls-off,275354,1,0.963318820816,-40.0363683212
ckt7-controls-off,275354,2,0.965343574383,-159.872515324
ckt7-controls-off,275354,3,0.962940347954,80.0811735342
ckt7-controls-off,165449,1,0.96320258019,-40.0587567711
ckt7-controls-off,165449,2,0.965281007135,-159.88911844
ckt7-controls-off,165449,3,0.962787918685,80.0620197347
ckt7-controls-off,165450,1,0.963202174234,-40.0587408426
ckt7-controls-off,165450,2,0.965281068894,-159.889125089
ckt7-controls-off,165450,3,0.962787984719,80.0620262539
ckt7-controls-off,165453,1,0.962678749639,-40.1353355494
ckt7-controls-off,165453,2,0.964912743246,-159.946574179
ckt7-controls-off,165453,3,0.962146964967,79.9959571011
ckt7-controls-off,165454,1,0.962597390528,-40.1354295002
ckt7-controls-off,165454,2,0.964830538731,-159.946651339
ckt7-controls-off,165454,3,0.962064699752,79.9958569077
ckt7-controls-off,165451,1,0.962805155709,-40.1356295589
ckt7-controls-off,165451,2,0.965066818769,-159.946105342
ckt7-controls-off,165451,3,0.962265549886,79.9962327097
ckt7-controls-off,238402,1,0.962545760877,-40.1354908036
ckt7-controls-off,238402,2,0.964778602677,-159.946701806
ckt7-controls-off,238402,3,0.962012759451,79.9957980194
ckt7-controls-off,165455,1,0.962193895948,-40.1364778858
ckt7-controls-off,165455,2,0.964426148027,-159.947614189
ckt7-controls-off,165455,3,0.961660523697,79.9948668063
ckt7-controls-off,165456,1,0.962196603464,-40.1363433393
ckt7-controls-off,165456,2,0.964428866736,-159.947480453
ckt7-controls-off,165456,3,0.96166323873,79.9950008792
ckt7-controls-off,165452,1,0.962333299203,-40.1361793015
ckt7-controls-off,165452,2,0.964565683843,-159.947345458
ckt7-controls-off,165452,3,0.961799969405,79.9951395599
ckt7-controls-off,283563,1,0.962222793713,-40.1363054963
ckt7-controls-off,283563,2,0.964455083275,-159.947448675
ckt7-controls-off,283563,3,0.961689430204,79.9950334853
ckt7-controls-off,165457,1,0.962181624056,-40.13664598
ckt7-controls-off,165457,2,0.964413854061,-159.94777923
ckt7-controls-off,165457,3,0.961648242724,79.9947010879
ckt7-controls-off,165458,1,0.962683764315,-40.1360666994
ckt7-controls-off,165458,2,0.964945284791,-159.946513541
ckt7-controls-off,165458,3,0.962144141691,79.9958201384
ckt7-controls-off,165459,1,0.96268963788,-40.1357766637
ckt7-controls-off,165459,2,0.964951183012,-159.946225285
ckt7-controls-off,165459,3,0.962150031561,79.9961091174
ckt7-controls-off,165460,1,0.962655235311,-40.1364521683
ckt7-controls-off,165460,2,0.964916703607,-159.946891809
ckt7-controls-off,165460,3,0.96211559245,79.9954403056
ckt7-controls-off,165461,1,0.962248966425,-40.141941257
ckt7-controls-off,165461,2,0.964509676565,-159.952276795
ckt7-controls-off,165461,3,0.961709049805,79.9900330479
ckt7-controls-off,165463,1,0.962122394723,-40.1436836653
ckt7-controls-off,165463,2,0.964382866966,-159.953986664
ckt7-controls-off,165463,3,0.961582391797,79.9883161304
ckt7-controls-off,165462,1,0.962025845251,-40.1450304788
ckt7-controls-off,165462,2,0.964286121433,-159.955307238
ckt7-controls-off,165462,3,0.961485788978,79.9869901472
ckt7-controls-off,165465,1,0.962112390105,-40.1438184173
ckt7-controls-off,165465,2,0.964372846052,-159.954119087
ckt7-controls-off,165465,3,0.961572378202,79.9881831556
ckt7-controls-off,165466,1,0.962247927577,-40.1418895719
ckt7-controls-off,165466,2,0.964508639193,-159.952225025
ckt7-controls-off,165466,3,0.961708012274,79.9900849773
ckt7-controls-off,165467,1,0.961009661324,-40.1928998162
ckt7-controls-off,165467,2,0.963688758342,-159.99207176
ckt7-controls-off,165467,3,0.960397578696,79.9483135863
ckt7-controls-off,165468,1,0.960919146211,-40.2159412632
ckt7-controls-off,165468,2,0.963661089523,-160.007904827
ckt7-controls-off,165468,3,0.960258335833,79.9290577222
ckt7-controls-off,165475,1,0.960534096769,-40.2394950898
ckt7-controls-off,165475,2,0.963328760546,-160.024493553
ckt7-controls-off,165475,3,0.959827932061,79.9091487731
ckt7-controls-off,165476,1,0.960529540302,-40.239727199
ckt7-controls-off,165476,2,0.96332417767,-160.024723864
ckt7-controls-off,165476,3,0.959823361122,79.9089178643
ckt7-controls-off,165477,1,0.960480341051,-40.2404375084
ckt7-controls-off,165477,2,0.963274851672,-160.025417639
ckt7-controls-off,165477,3,0.959774140607,79.9082206659
ckt7-controls-off,273626,1,0.960612907251,-40.2393275681
ckt7-controls-off,273626,2,0.963407688474,-160.02435096
ckt7-controls-off,273626,3,0.959906703667,79.909295216
ckt7-controls-off,165469,1,0.960829631018,-40.2387699995
ckt7-controls-off,165469,2,0.963633816826,-160.023588266
ckt7-controls-off,165469,3,0.960120504598,79.9099802377
ckt7-controls-off,165480,1,0.960718157922,-40.2717831438
ckt7-controls-off,165480,2,0.963618422425,-160.045601661
ckt7-controls-off,165480,3,0.959934874216,79.8827457249
ckt7-controls-off,165478,1,0.960641020753,-40.2946826035
ckt7-controls-off,165478,2,0.96360796005,-160.060866161
ckt7-controls-off,165478,3,0.959806251966,79.8638574536
ckt7-controls-off,165479,1,0.960564809276,-40.318620308
ckt7-controls-off,165479,2,0.963602515303,-160.076692324
ckt7-controls-off,165479,3,0.959675323224,79.8441783039
ckt7-controls-off,165484,1,0.960600609354,-40.294940545
ckt7-controls-off,165484,2,0.963567491238,-160.061113173
ckt7-controls-off,165484,3,0.959765813432,79.8636082007
ckt7-controls-off,165483,1,0.960606953207,-40.2948547724
ckt7-controls-off,165483,2,0.963573847049,-160.061029173
ckt7-controls-off,165483,3,0.959772164768,79.8636926979
ckt7-controls-off,261839,1,0.960609980786,-40.2948135544
ckt7-controls-off,261839,2,0.963576880554,-160.060988824
ckt7-controls-off,261839,3,0.959775195719,79.8637332863
ckt7-controls-off,261838,1,0.960611828044,-40.2947219203
ckt7-controls-off,261838,2,0.963578736267,-160.06089786
ckt7-controls-off,261838,3,0.959777049205,79.8638246114
ckt7-controls-off,165486,1,0.960545831932,-40.3188353521
ckt7-controls-off,165486,2,0.96360491339,-160.076765988
ckt7-controls-off,165486,3,0.959672148188,79.844441167
ckt7-controls-off,165485,1,0.960538987424,-40.3189217268
ckt7-controls-off,165485,2,0.963606683529,-160.076795865
ckt7-controls-off,165485,3,0.959671695829,79.8445476545
ckt7-controls-off,165487,1,0.960459084478,-40.3533308981
ckt7-controls-off,165487,2,0.96359168849,-160.099816619
ckt7-controls-off,165487,3,0.959485052586,79.8151500258
ckt7-controls-off,165488,1,0.960359402896,-40.3536901242
ckt7-controls-off,165489,1,0.96036386666,-40.3534679423
ckt7-controls-off,165491,1,0.960302784721,-40.3537716394
ckt7-controls-off,165490,1,0.960243896111,-40.3538629538
ckt7-controls-off,165494,1,0.960185064959,-40.3539543434
ckt7-controls-off,165492,1,0.960171623096,-40.3539746609
ckt7-controls-off,165493,1,0.960140040775,-40.3540246737
ckt7-controls-off,283952,1,0.960381572368,-40.389435651
ckt7-controls-off,283952,2,0.963553884017,-160.125297758
ckt7-controls-off,283952,3,0.959280193575,79.7811583808
ckt7-controls-off,165500,1,0.960250755505,-40.4604076008
ckt7-controls-off,165500,2,0.96350315743,-160.174755594
ckt7-controls-off,165500,3,0.958891487111,79.7144347091
ckt7-controls-off,165501,1,0.960249853365,-40.4604525819
ckt7-controls-off,165501,2,0.963502250142,-160.174800183
ckt7-controls-off,165501,3,0.958890581561,79.7143898871
ckt7-controls-off,165495,1,0.960256141056,-40.4603995929
ckt7-controls-off,165495,2,0.963508549961,-160.174749346
ckt7-controls-off,165495,3,0.958896874264,79.714441348
ckt7-controls-off,165503,1,0.96023415459,-40.4606686953
ckt7-controls-off,165503,2,0.963486513447,-160.175010738
ckt7-controls-off,165503,3,0.958874864241,79.7141774542
ckt7-controls-off,165504,1,0.952611773653,-40.7777289956
ckt7-controls-off,165504,2,0.957100362754,-160.432554221
ckt7-controls-off,165504,3,0.949969449824,79.4247749188
ckt7-controls-off,181883,1,0.951682800487,-41.028707739
ckt7-controls-off,181883,2,0.956270856798,-160.666643471
ckt7-controls-off,181883,3,0.948915195918,79.1815537138
ckt7-controls-off,158676,1,0.951682800527,-41.0287077397
ckt7-controls-off,158676,2,0.956270856839,-160.666643471
ckt7-controls-off,158676,3,0.948915195957,79.1815537131
ckt7-controls-off,181889,1,0.951299591708,-41.0284811846
ckt7-controls-off,181889,2,0.955858838157,-160.668359949
ckt7-controls-off,181889,3,0.948598006451,79.1812177255
ckt7-controls-off,181890,1,0.951297680622,-41.0285793641
ckt7-controls-off,181890,2,0.955856911899,-160.668456925
ckt7-controls-off,181890,3,0.948596087112,79.1811199555
ckt7-controls-off,181891,1,0.950949396981,-41.0298247145
ckt7-controls-off,181891,2,0.955483257635,-160.67263287
ckt7-controls-off,181891,3,0.948332855382,79.1793343327
ckt7-controls-off,181892,1,0.950942009693,-41.0301300417
ckt7-controls-off,181892,2,0.955476312121,-160.673035881
ckt7-controls-off,181892,3,0.948328060921,79.1790734697
ckt7-controls-off,181884,1,0.951376933187,-41.0285169847
ckt7-controls-off,181884,2,0.955941669556,-160.668023965
ckt7-controls-off,181884,3,0.948662641052,79.1812939424
ckt7-controls-off,181886,1,0.951305004114,-41.0284697593
ckt7-controls-off,181886,2,0.955864259727,-160.668351039
ckt7-controls-off,181886,3,0.94860341749,79.1812273515
ckt7-controls-off,181888,1,0.951120083994,-41.0282429088
ckt7-controls-off,181888,2,0.955662412419,-160.669302656
ckt7-controls-off,181888,3,0.948457878291,79.1810885916
ckt7-controls-off,181885,1,0.950999152238,-41.0292949126
ckt7-controls-off,181885,2,0.955532053446,-160.671727446
ckt7-controls-off,181885,3,0.948369520352,79.1798044444
ckt7-controls-off,181887,1,0.95098412181,-41.0294623996
ckt7-controls-off,181887,2,0.955517261399,-160.671989976
ckt7-controls-off,181887,3,0.948357840103,79.1796529377
ckt7-controls-off,181893,1,0.951293983907,-41.0286331112
...
